*SPEF "1481-1998"
*DESIGN "Johnson_count"
*DATE "Wed May  3 22:12:11 2023"
*VENDOR "Synopsys, Inc."
*PROGRAM "icc_shell"
*VERSION "Q-2019.12-SP5"
*DESIGN_FLOW "PIN_CAP NONE"
*DIVIDER /
*DELIMITER :
*BUS_DELIMITER [ ]
*T_UNIT 1 NS
*C_UNIT 1 FF
*R_UNIT 1 OHM
*L_UNIT 1 HENRY

*NAME_MAP
*1 out[4]
*2 out[3]
*3 out[2]
*4 out[1]
*5 out[0]
*6 VDD
*7 VSS
*8 SCANOUTPORT
*9 r
*10 clk
*11 SE
*12 SCANINPORT
*13 out[7]
*14 out[6]
*15 out[5]
*16 out\[7\]
*17 out_reg\[7\]
*18 n39
*19 out_reg\[1\]
*20 out_reg\[2\]
*21 out_reg\[3\]
*22 out_reg\[4\]
*23 out_reg\[5\]
*24 out_reg\[6\]
*25 out_reg\[0\]
*26 n15
*27 U10
*28 n40
*29 n38
*30 n37
*31 n36
*32 n35
*33 n34
*34 n17

*PORTS
*1 O *L 4.0 *S 0.0 0.0
*2 O *L 4.0 *S 0.0 0.0
*3 O *L 4.0 *S 0.0 0.0
*4 O *L 4.0 *S 0.0 0.0
*5 O *L 4.0 *S 0.0 0.0
*6 I *L 0.0 *S 0.0 0.0
*7 I *L 0.0 *S 0.0 0.0
*8 O *L 0.0 *S 0.0 0.0
*9 I *L 0.0 *S 0.0 0.0
*10 I *L 0.0 *S 0.0 0.0
*11 I *L 0.0 *S 0.0 0.0
*12 I *L 0.0 *S 0.0 0.0
*13 O *L 4.0 *S 0.0 0.0
*14 O *L 4.0 *S 0.0 0.0
*15 O *L 4.0 *S 0.0 0.0

*D_NET *16 8.235632

*CONN
*I *17:Q O *L 0.0 *D SDFFARX1 *C 16.2 24.68
*P *13 O *C 29.96 30.72
*P *8 O *C 0.08 1.96
*N *16:4 *C 29.96 30.44
*N *16:5 *C 29.96 30.44
*N *16:6 *C 16.2 30.44
*N *16:7 *C 16.2 30.44
*N *16:8 *C 16.2 24.68
*N *16:9 *C 1.48 1.96
*N *16:10 *C 1.48 1.96
*N *16:11 *C 1.48 23.72
*N *16:12 *C 1.48 23.72
*N *16:13 *C 15.24 23.72
*N *16:14 *C 15.24 23.72
*N *16:15 *C 15.24 23.08
*N *16:16 *C 15.24 23.08
*N *16:17 *C 15.56 23.08
*N *16:18 *C 15.56 23.08
*N *16:19 *C 16.84 23.08
*N *16:20 *C 16.84 23.08
*N *16:21 *C 16.84 22.76
*N *16:22 *C 16.84 22.76
*N *16:23 *C 16.2 22.76

*CAP
1 *17:Q 0.0
2 *13 0.0177049
3 *8 0.08549414
4 *16:4 0.0177049
5 *16:5 0.5882418
6 *16:6 0.4594718
7 *16:7 0.5882418
8 *16:8 0.6292709
9 *16:9 0.08549414
10 *16:10 1.232125
11 *16:11 1.232125
12 *16:12 1.182497
13 *16:13 0.09072037
14 *16:14 1.182497
15 *16:15 0.04332409
16 *16:16 0.09072037
17 *16:17 0.1105264
18 *16:18 0.04332409
19 *16:19 0.1105264
20 *16:20 0.06056766
21 *16:21 0.06056766
22 *16:22 0.07734307
23 *16:23 0.2471422

*RES
1 *16:4 *16:5 0.9
2 *16:6 *16:7 0.9
3 *16:8 *17:Q 0.9
4 *16:9 *16:10 0.9
5 *16:11 *16:12 0.9
6 *16:13 *16:14 0.9
7 *16:15 *16:16 0.9
8 *16:17 *16:18 0.9
9 *16:19 *16:20 0.9
10 *16:21 *16:22 0.9
11 *16:12 *16:14 9.000003
12 *16:7 *16:5 9.000002
13 *16:10 *16:11 12.375
14 *16:16 *16:13 0.495
15 *16:23 *16:22 0.36
16 *16:23 *16:8 1.035
17 *16:8 *16:6 3.3075
18 *16:4 *13 0.18
19 *8 *16:9 0.8100001
20 *16:15 *16:18 0.315
21 *16:21 *16:20 0.09000001
22 *16:17 *16:19 0.6300001

*END

*D_NET *18 3.238648

*CONN
*I *19:QN O *L 0.0 *D SDFFARX1 *C 27.55 14.09
*I *20:SI I *L 1828.496 *C 14.92 11.56
*N *18:3 *C 14.92 11.56
*N *18:4 *C 14.92 11.56
*N *18:5 *C 15.56 11.56
*N *18:6 *C 15.56 11.56
*N *18:7 *C 16.84 11.56
*N *18:8 *C 16.84 11.56
*N *18:9 *C 17.48 11.56
*N *18:10 *C 17.48 11.56
*N *18:11 *C 17.48 9.32
*N *18:12 *C 17.48 9.32
*N *18:13 *C 27.4 9.32
*N *18:14 *C 27.4 9.32
*N *18:15 *C 27.4 12.84
*N *18:16 *C 27.4 12.84

*CAP
1 *19:QN 0.03090012
2 *20:SI 0.0
3 *18:3 0.04704591
4 *18:4 0.1112406
5 *18:5 0.1192795
6 *18:6 0.06419465
7 *18:7 0.1192795
8 *18:8 0.06413051
9 *18:9 0.06413051
10 *18:10 0.1799319
11 *18:11 0.1799319
12 *18:12 0.8500796
13 *18:13 0.2637619
14 *18:14 0.8500796
15 *18:15 0.2637619
16 *18:16 0.03090012

*RES
1 *18:3 *20:SI 0.9
2 *18:4 *18:3 0.9
3 *18:5 *18:6 0.9
4 *18:7 *18:8 0.9
5 *18:9 *18:10 0.9
6 *18:11 *18:12 0.9
7 *18:13 *18:14 0.9
8 *19:QN *18:16 0.135
9 *18:15 *18:16 0.9
10 *18:12 *18:14 6.53143
11 *18:11 *18:10 1.395
12 *18:13 *18:15 2.115
13 *18:4 *18:6 0.4950001
14 *18:8 *18:9 0.4950001
15 *18:5 *18:7 0.63

*END

*D_NET *4 3.548128

*CONN
*I *19:Q O *L 0.0 *D SDFFARX1 *C 28.04 13.16
*I *20:D I *L 1419.717 *C 15.24 10.92
*P *4 O *C 29.96 0.08
*N *4:4 *C 28.04 13.16
*N *4:5 *C 27.72 8.68
*N *4:6 *C 27.72 8.68
*N *4:7 *C 15.24 10.92
*N *4:8 *C 15.56 8.68
*N *4:9 *C 15.56 8.68
*N *4:10 *C 29.96 8.68
*N *4:11 *C 29.96 8.68
*N *4:12 *C 15.24 9.64
*N *4:13 *C 15.56 9.64
*N *4:14 *C 27.72 13.16

*CAP
1 *19:Q 0.0
2 *20:D 0.0
3 *4 0.353803
4 *4:4 0.03055138
5 *4:5 0.2974979
6 *4:6 0.9285343
7 *4:7 0.08273212
8 *4:8 0.06229537
9 *4:9 0.8220081
10 *4:10 0.353803
11 *4:11 0.1065262
12 *4:12 0.1013821
13 *4:13 0.08094532
14 *4:14 0.3280493

*RES
1 *4:4 *19:Q 0.9
2 *4:5 *4:6 0.9
3 *4:7 *20:D 0.9
4 *4:8 *4:9 0.9
5 *4:10 *4:11 0.9
6 *4:9 *4:6 7.894288
7 *4:6 *4:11 1.517143
8 *4:12 *4:7 0.8325
9 *4:12 *4:13 0.18
10 *4:8 *4:13 0.5625001
11 *4:5 *4:14 2.6325
12 *4:14 *4:4 0.09000001
13 *4 *4:10 4.86

*END

*D_NET *10 8.63708

*CONN
*I *19:CLK I *L 1291.831 *C 19.08 13.8
*I *20:CLK I *L 1291.831 *C 16.2 11.24
*I *21:CLK I *L 1291.831 *C 12.36 13.8
*I *22:CLK I *L 1291.831 *C 5.0 19.56
*I *23:CLK I *L 1291.831 *C 16.84 17.0
*I *24:CLK I *L 1291.831 *C 25.48 22.76
*I *25:CLK I *L 1291.831 *C 5.64 25.32
*I *17:CLK I *L 1291.831 *C 25.16 25.32
*P *10 I *C 0.16 28.84
*N *10:10 *C 19.08 13.8
*N *10:11 *C 16.2 11.24
*N *10:12 *C 12.36 13.8
*N *10:13 *C 5.0 19.56
*N *10:14 *C 16.84 17.0
*N *10:15 *C 25.48 22.76
*N *10:16 *C 5.64 25.32
*N *10:17 *C 25.16 25.32
*N *10:18 *C 16.52 8.36
*N *10:19 *C 16.52 8.36
*N *10:20 *C 19.08 8.36
*N *10:21 *C 19.08 8.36
*N *10:22 *C 18.76 19.24
*N *10:23 *C 18.76 19.24
*N *10:24 *C 25.48 19.24
*N *10:25 *C 25.48 19.24
*N *10:26 *C 12.36 21.8
*N *10:27 *C 12.36 21.8
*N *10:28 *C 5.32 21.8
*N *10:29 *C 5.32 21.8
*N *10:30 *C 12.36 9.32
*N *10:31 *C 12.36 9.32
*N *10:32 *C 16.52 9.32
*N *10:33 *C 16.52 9.32
*N *10:34 *C 0.16 28.84
*N *10:35 *C 0.16 28.84
*N *10:36 *C 5.0 28.84
*N *10:37 *C 5.0 28.84
*N *10:38 *C 5.0 28.84
*N *10:39 *C 5.0 28.84
*N *10:40 *C 5.0 21.8
*N *10:41 *C 5.0 25.32
*N *10:42 *C 5.32 25.32
*N *10:43 *C 16.52 11.24
*N *10:44 *C 16.84 11.24
*N *10:45 *C 18.76 14.12
*N *10:46 *C 19.08 14.12
*N *10:47 *C 25.48 25.32

*CAP
1 *19:CLK 0.0
2 *20:CLK 0.0
3 *21:CLK 0.0
4 *22:CLK 0.0
5 *23:CLK 0.0
6 *24:CLK 0.0
7 *25:CLK 0.0
8 *17:CLK 0.0
9 *10 0.0
10 *10:10 0.2468131
11 *10:11 0.03552895
12 *10:12 0.5650806
13 *10:13 0.1130758
14 *10:14 0.4059841
15 *10:15 0.4117867
16 *10:16 0.03143811
17 *10:17 0.04374172
18 *10:18 0.05635808
19 *10:19 0.2119203
20 *10:20 0.2383658
21 *10:21 0.2119203
22 *10:22 0.2413232
23 *10:23 0.3140547
24 *10:24 0.2631517
25 *10:25 0.3140547
26 *10:26 0.360335
27 *10:27 0.529362
28 *10:28 0.1568919
29 *10:29 0.529362
30 *10:30 0.2047457
31 *10:31 0.3578388
32 *10:32 0.1291176
33 *10:33 0.3578388
34 *10:34 0.03011937
35 *10:35 0.2349484
36 *10:36 0.2048291
37 *10:37 0.02086234
38 *10:38 0.05160277
39 *10:39 0.198634
40 *10:40 0.1248237
41 *10:41 0.1909451
42 *10:42 0.1996336
43 *10:43 0.1339759
44 *10:44 0.4316715
45 *10:45 0.2627218
46 *10:46 0.02984597
47 *10:47 0.1923766

*RES
1 *10:10 *19:CLK 0.9
2 *10:11 *20:CLK 0.9
3 *10:12 *21:CLK 0.9
4 *10:13 *22:CLK 0.9
5 *10:14 *23:CLK 0.9
6 *10:15 *24:CLK 0.9
7 *10:16 *25:CLK 0.9
8 *10:17 *17:CLK 0.9
9 *10:18 *10:19 0.9
10 *10:20 *10:21 0.9
11 *10:22 *10:23 0.9
12 *10:24 *10:25 0.9
13 *10:26 *10:27 0.9
14 *10:28 *10:29 0.9
15 *10:30 *10:31 0.9
16 *10:32 *10:33 0.9
17 *10:34 *10 0.9
18 *10:35 *10:34 0.9
19 *10:36 *10:37 0.9
20 *10:37 *10:38 0.9
21 *10:38 *10:39 0.9
22 *10:29 *10:27 4.680001
23 *10:31 *10:33 2.828572
24 *10:19 *10:21 1.800001
25 *10:23 *10:25 4.474287
26 *10:13 *10:40 1.3725
27 *10:40 *10:28 0.135
28 *10:41 *10:42 0.225
29 *10:42 *10:16 0.135
30 *10:41 *10:39 2.0025
31 *10:28 *10:42 1.935
32 *10:30 *10:12 2.5875
33 *10:12 *10:26 4.5675
34 *10:11 *10:43 0.135
35 *10:43 *10:44 0.225
36 *10:18 *10:32 0.6075
37 *10:32 *10:43 1.035
38 *10:44 *10:14 3.2625
39 *10:45 *10:22 2.9925
40 *10:45 *10:46 0.18
41 *10:20 *10:10 3.1275
42 *10:10 *10:46 0.135
43 *10:17 *10:47 0.18
44 *10:24 *10:15 2.0475
45 *10:15 *10:47 1.395
46 *10:35 *10:36 2.8575

*END

*D_NET *26 4.396121

*CONN
*I *27:ZN O *L 0.0 *D INVX0 *C 7.24 16.68
*I *19:RSTB I *L 3539.856 *C 21.755 14.81
*I *20:RSTB I *L 3539.856 *C 22.28 9.96
*I *21:RSTB I *L 3539.856 *C 7.56 15.08
*I *22:RSTB I *L 3539.856 *C 9.8 20.84
*I *23:RSTB I *L 3539.856 *C 21.64 15.72
*I *24:RSTB I *L 3539.856 *C 19.4 21.48
*I *25:RSTB I *L 3539.856 *C 10.44 26.6
*I *17:RSTB I *L 3539.856 *C 19.08 26.6
*N *26:10 *C 10.44 26.6
*N *26:11 *C 21.64 15.72
*N *26:12 *C 21.96 14.76
*N *26:13 *C 21.96 14.76
*N *26:14 *C 7.88 20.52
*N *26:15 *C 7.88 20.52
*N *26:16 *C 22.28 9.96
*N *26:17 *C 22.92 15.72
*N *26:18 *C 19.4 21.48
*N *26:19 *C 19.72 16.04
*N *26:20 *C 19.72 16.04
*N *26:21 *C 7.24 16.68
*N *26:22 *C 19.08 26.6
*N *26:23 *C 9.48 22.76
*N *26:24 *C 9.48 22.76
*N *26:25 *C 9.48 22.76
*N *26:26 *C 9.48 22.76
*N *26:27 *C 19.4 21.48
*N *26:28 *C 19.4 21.48
*N *26:29 *C 19.4 21.48
*N *26:30 *C 7.56 15.08
*N *26:31 *C 9.8 20.84
*N *26:32 *C 7.56 16.68
*N *26:33 *C 7.56 20.2
*N *26:34 *C 7.88 20.2
*N *26:35 *C 9.48 20.84
*N *26:36 *C 9.48 26.6
*N *26:37 *C 19.4 26.6
*N *26:38 *C 19.4 18.28
*N *26:39 *C 19.72 18.28
*N *26:40 *C 21.96 15.72
*N *26:41 *C 22.92 9.96
*N *26:42 *C 9.48 22.12
*N *26:43 *C 19.4 22.12

*CAP
1 *27:ZN 0.0
2 *19:RSTB 0.01802892
3 *20:RSTB 0.0
4 *21:RSTB 0.0
5 *22:RSTB 0.02596741
6 *23:RSTB 0.02665407
7 *24:RSTB 0.0
8 *25:RSTB 0.0
9 *17:RSTB 0.0
10 *26:10 0.05572333
11 *26:11 0.03603884
12 *26:12 0.03881015
13 *26:13 0.01802892
14 *26:14 0.01894265
15 *26:15 0.02596741
16 *26:16 0.05695753
17 *26:17 0.2419043
18 *26:18 0.3933875
19 *26:19 0.09679157
20 *26:20 0.02665407
21 *26:21 0.03156013
22 *26:22 0.03703782
23 *26:23 0.03015661
24 *26:24 0.2494524
25 *26:25 0.05070666
26 *26:26 0.06622154
27 *26:27 0.04122605
28 *26:28 0.03452979
29 *26:29 0.06841451
30 *26:30 0.07567055
31 *26:31 0.02891395
32 *26:32 0.2554803
33 *26:33 0.1641748
34 *26:34 0.0348678
35 *26:35 0.1143043
36 *26:36 0.2197854
37 *26:37 0.2577768
38 *26:38 0.1548118
39 *26:39 0.1128396
40 *26:40 0.07484899
41 *26:41 0.2988618
42 *26:42 0.459534
43 *26:43 0.4550886

*RES
1 *26:10 *25:RSTB 0.9
2 *26:11 *23:RSTB 0.9
3 *19:RSTB *26:13 0.06000001
4 *26:12 *26:13 0.9
5 *22:RSTB *26:15 0.06000001
6 *26:14 *26:15 0.9
7 *26:16 *20:RSTB 0.9
8 *26:17 *23:RSTB 0.9
9 *26:18 *24:RSTB 0.9
10 *23:RSTB *26:20 0.06000001
11 *26:19 *26:20 0.9
12 *26:21 *27:ZN 0.9
13 *26:22 *17:RSTB 0.9
14 *26:23 *26:24 0.9
15 *26:25 *26:23 0.9
16 *26:26 *26:25 0.9
17 *26:27 *26:28 0.9
18 *26:28 *26:29 0.9
19 *26:29 *26:18 0.9
20 *26:30 *21:RSTB 0.9
21 *26:31 *22:RSTB 0.9
22 *26:21 *26:32 0.18
23 *26:30 *26:32 0.9225
24 *26:32 *26:33 1.98
25 *26:33 *26:34 0.18
26 *26:34 *26:14 0.2025
27 *26:35 *26:24 1.125
28 *26:24 *26:36 2.205
29 *26:35 *26:31 0.09000001
30 *26:36 *26:10 0.45
31 *26:22 *26:37 0.18
32 *26:38 *26:18 1.845
33 *26:18 *26:37 2.835
34 *26:38 *26:39 0.18
35 *26:19 *26:39 1.2825
36 *26:11 *26:40 0.18
37 *26:12 *26:40 0.5625001
38 *26:16 *26:41 0.36
39 *26:41 *26:17 3.2625
40 *26:42 *26:26 0.36
41 *26:42 *26:43 5.58
42 *26:27 *26:43 0.27

*END

*D_NET *11 9.421541

*CONN
*I *19:SE I *L 2660.475 *C 17.16 13.8
*I *20:SE I *L 2660.475 *C 14.28 11.24
*I *21:SE I *L 2660.475 *C 14.28 13.8
*I *22:SE I *L 2660.475 *C 3.08 19.56
*I *23:SE I *L 2660.475 *C 14.92 17.0
*I *24:SE I *L 2660.475 *C 27.4 22.76
*I *25:SE I *L 2660.475 *C 3.72 25.32
*I *17:SE I *L 2660.475 *C 27.08 25.32
*P *11 I *C 1.8 30.72
*N *11:10 *C 17.16 13.8
*N *11:11 *C 14.28 11.24
*N *11:12 *C 14.92 17.0
*N *11:13 *C 27.4 22.76
*N *11:14 *C 27.08 25.32
*N *11:15 *C 3.72 25.32
*N *11:16 *C 17.16 20.84
*N *11:17 *C 17.16 20.84
*N *11:18 *C 26.76 20.84
*N *11:19 *C 26.76 20.84
*N *11:20 *C 17.16 9.32
*N *11:21 *C 17.16 9.32
*N *11:22 *C 17.16 9.32
*N *11:23 *C 17.16 9.32
*N *11:24 *C 13.64 9.32
*N *11:25 *C 13.64 9.32
*N *11:26 *C 13.64 9.32
*N *11:27 *C 13.64 9.32
*N *11:28 *C 13.64 17.0
*N *11:29 *C 13.64 17.0
*N *11:30 *C 13.64 17.0
*N *11:31 *C 13.64 17.0
*N *11:32 *C 14.92 17.0
*N *11:33 *C 14.92 17.0
*N *11:34 *C 14.92 17.0
*N *11:35 *C 14.92 22.12
*N *11:36 *C 14.92 22.12
*N *11:37 *C 3.08 22.12
*N *11:38 *C 3.08 22.12
*N *11:39 *C 3.08 19.56
*N *11:40 *C 14.28 13.8
*N *11:41 *C 3.08 30.64
*N *11:42 *C 3.08 25.32
*N *11:43 *C 13.64 11.24
*N *11:44 *C 13.64 13.8
*N *11:45 *C 26.76 25.0
*N *11:46 *C 27.08 25.0
*N *11:47 *C 27.4 25.32

*CAP
1 *19:SE 0.0
2 *20:SE 0.0
3 *21:SE 0.0
4 *22:SE 0.0
5 *23:SE 0.0
6 *24:SE 0.0
7 *25:SE 0.0
8 *17:SE 0.0
9 *11 0.05106908
10 *11:10 0.95342
11 *11:11 0.05968564
12 *11:12 0.3551195
13 *11:13 0.08555236
14 *11:14 0.02629506
15 *11:15 0.04961746
16 *11:16 0.5788449
17 *11:17 0.6772239
18 *11:18 0.2408969
19 *11:19 0.6772239
20 *11:20 0.03302551
21 *11:21 0.3745752
22 *11:22 0.06382521
23 *11:23 0.1859223
24 *11:24 0.1551226
25 *11:25 0.03066902
26 *11:26 0.06159706
27 *11:27 0.1774982
28 *11:28 0.03107582
29 *11:29 0.19453
30 *11:30 0.06538453
31 *11:31 0.1039859
32 *11:32 0.06967718
33 *11:33 0.03430871
34 *11:34 0.06538453
35 *11:35 0.3240437
36 *11:36 0.7054821
37 *11:37 0.2694013
38 *11:38 0.7054821
39 *11:39 0.1409262
40 *11:40 0.04652725
41 *11:41 0.2679846
42 *11:42 0.3950081
43 *11:43 0.3700375
44 *11:44 0.404839
45 *11:45 0.2596639
46 *11:46 0.02223077
47 *11:47 0.1083837

*RES
1 *11:10 *19:SE 0.9
2 *11:11 *20:SE 0.9
3 *11:12 *23:SE 0.9
4 *11:13 *24:SE 0.9
5 *11:14 *17:SE 0.9
6 *11:15 *25:SE 0.9
7 *11:16 *11:17 0.9
8 *11:18 *11:19 0.9
9 *11:20 *11:21 0.9
10 *11:22 *11:20 0.9
11 *11:23 *11:22 0.9
12 *11:24 *11:25 0.9
13 *11:25 *11:26 0.9
14 *11:26 *11:27 0.9
15 *11:28 *11:29 0.9
16 *11:30 *11:28 0.9
17 *11:31 *11:30 0.9
18 *11:32 *11:33 0.9
19 *11:33 *11:34 0.9
20 *11:34 *11:12 0.9
21 *11:35 *11:36 0.9
22 *11:37 *11:38 0.9
23 *11:39 *22:SE 0.9
24 *11:40 *21:SE 0.9
25 *11:38 *11:36 7.765716
26 *11:17 *11:19 6.325716
27 *11 *11:41 0.7200001
28 *11:39 *11:37 1.5075
29 *11:37 *11:42 1.8
30 *11:42 *11:41 2.9475
31 *11:42 *11:15 0.27
32 *11:27 *11:43 1.1475
33 *11:43 *11:44 1.44
34 *11:44 *11:29 1.8675
35 *11:43 *11:11 0.27
36 *11:44 *11:40 0.27
37 *11:12 *11:35 3.015
38 *11:21 *11:10 2.587501
39 *11:10 *11:16 4.0275
40 *11:18 *11:45 2.4525
41 *11:45 *11:46 0.18
42 *11:46 *11:14 0.12375
43 *11:14 *11:47 0.225
44 *11:13 *11:47 1.4625
45 *11:24 *11:23 2.115
46 *11:31 *11:32 0.8550001

*END

*D_NET *28 2.461759

*CONN
*I *19:SI I *L 1828.496 *C 17.48 13.16
*I *25:QN O *L 0.0 *D SDFFARX1 *C 13.96 24.68
*N *28:3 *C 17.48 13.16
*N *28:4 *C 17.48 19.88
*N *28:5 *C 17.48 19.88
*N *28:6 *C 14.6 19.88
*N *28:7 *C 14.6 19.88
*N *28:8 *C 13.96 24.68
*N *28:9 *C 14.6 24.68

*CAP
1 *19:SI 0.0
2 *25:QN 0.0
3 *28:3 0.6622132
4 *28:4 0.6622132
5 *28:5 0.1574754
6 *28:6 0.3497968
7 *28:7 0.1574754
8 *28:8 0.06139426
9 *28:9 0.4111911

*RES
1 *28:3 *19:SI 0.9
2 *28:4 *28:5 0.9
3 *28:6 *28:7 0.9
4 *28:8 *25:QN 0.9
5 *28:7 *28:5 2.005714
6 *28:8 *28:9 0.36
7 *28:6 *28:9 2.7225
8 *28:3 *28:4 3.915

*END

*D_NET *5 2.897465

*CONN
*I *19:D I *L 1419.717 *C 18.12 14.12
*I *25:Q O *L 0.0 *D SDFFARX1 *C 14.6 25.0
*P *5 O *C 15.24 30.72
*N *5:4 *C 18.12 14.12
*N *5:5 *C 17.48 22.76
*N *5:6 *C 17.48 22.76
*N *5:7 *C 17.48 22.76
*N *5:8 *C 17.48 22.76
*N *5:9 *C 14.92 22.76
*N *5:10 *C 14.92 22.76
*N *5:11 *C 14.92 22.76
*N *5:12 *C 14.92 22.76
*N *5:13 *C 14.6 25.0
*N *5:14 *C 14.92 25.0
*N *5:15 *C 14.92 24.68
*N *5:16 *C 15.24 24.68
*N *5:17 *C 17.8 22.76
*N *5:18 *C 17.8 14.12

*CAP
1 *19:D 0.0
2 *25:Q 0.02660873
3 *5 0.2732683
4 *5:4 0.03374692
5 *5:5 0.0341731
6 *5:6 0.05081198
7 *5:7 0.05634385
8 *5:8 0.1619503
9 *5:9 0.1397795
10 *5:10 0.02205595
11 *5:11 0.05462612
12 *5:12 0.2147825
13 *5:13 0.066703
14 *5:14 0.06049328
15 *5:15 0.2230907
16 *5:16 0.2937477
17 *5:17 0.6011739
18 *5:18 0.5841088

*RES
1 *5:4 *19:D 0.9
2 *5:5 *5:6 0.9
3 *5:7 *5:5 0.9
4 *5:8 *5:7 0.9
5 *5:9 *5:10 0.9
6 *5:10 *5:11 0.9
7 *5:11 *5:12 0.9
8 *5:13 *25:Q 0.9
9 *5:13 *5:14 0.2925
10 *5:12 *5:15 1.1475
11 *5:15 *5:14 0.135
12 *5:15 *5:16 0.18
13 *5:16 *5 3.3075
14 *5:6 *5:17 0.18
15 *5:18 *5:17 4.86
16 *5:18 *5:4 0.09
17 *5:9 *5:8 1.575

*END

*D_NET *29 2.82347

*CONN
*I *20:QN O *L 0.0 *D SDFFARX1 *C 24.52 11.88
*I *21:SI I *L 1828.496 *C 13.96 13.16
*N *29:3 *C 13.96 13.16
*N *29:4 *C 14.6 9.0
*N *29:5 *C 14.6 9.0
*N *29:6 *C 24.52 9.0
*N *29:7 *C 24.52 9.0
*N *29:8 *C 24.52 11.88
*N *29:9 *C 14.6 13.16

*CAP
1 *20:QN 0.0
2 *21:SI 0.0
3 *29:3 0.0711137
4 *29:4 0.2270584
5 *29:5 0.8782532
6 *29:6 0.2353098
7 *29:7 0.8782532
8 *29:8 0.2353098
9 *29:9 0.2981721

*RES
1 *29:3 *21:SI 0.9
2 *29:4 *29:5 0.9
3 *29:6 *29:7 0.9
4 *29:8 *20:QN 0.9
5 *29:5 *29:7 6.531429
6 *29:3 *29:9 0.36
7 *29:4 *29:9 2.3625
8 *29:6 *29:8 1.755

*END

*D_NET *3 3.286938

*CONN
*I *20:Q O *L 0.0 *D SDFFARX1 *C 25.16 11.88
*I *21:D I *L 1419.717 *C 13.32 14.12
*P *3 O *C 15.88 0.08
*N *3:4 *C 15.88 7.72
*N *3:5 *C 15.88 7.72
*N *3:6 *C 13.32 7.72
*N *3:7 *C 13.32 7.72
*N *3:8 *C 13.32 14.12
*N *3:9 *C 25.16 11.88
*N *3:10 *C 25.16 7.72
*N *3:11 *C 25.16 7.72

*CAP
1 *20:Q 0.0
2 *21:D 0.0
3 *3 0.3372476
4 *3:4 0.3372476
5 *3:5 0.539592
6 *3:6 0.4420723
7 *3:7 0.1186959
8 *3:8 0.4420723
9 *3:9 0.3245574
10 *3:10 0.3245574
11 *3:11 0.4208961

*RES
1 *3:4 *3:5 0.9
2 *3:6 *3:7 0.9
3 *3:8 *21:D 0.9
4 *3:9 *20:Q 0.9
5 *3:10 *3:11 0.9
6 *3:7 *3:5 1.722857
7 *3:5 *3:11 6.042859
8 *3:6 *3:8 3.735
9 *3 *3:4 4.32
10 *3:10 *3:9 2.475

*END

*D_NET *30 0.5254082

*CONN
*I *21:QN O *L 0.0 *D SDFFARX1 *C 3.89 14.76
*I *22:SI I *L 1828.496 *C 3.72 18.92
*N *30:3 *C 3.89 14.76
*N *30:4 *C 3.72 18.92
*N *30:5 *C 3.72 18.28
*N *30:6 *C 4.04 18.28

*CAP
1 *21:QN 0.0
2 *22:SI 0.02262108
3 *30:3 0.1658926
4 *30:4 0.07826498
5 *30:5 0.07419042
6 *30:6 0.1844391

*RES
1 *30:3 *21:QN 0.9
2 *30:4 *22:SI 0.9
3 *30:5 *30:4 0.4725001
4 *30:5 *30:6 0.18
5 *30:3 *30:6 2.0025

*END

*D_NET *2 2.667137

*CONN
*I *21:Q O *L 0.0 *D SDFFARX1 *C 3.4 13.16
*I *22:D I *L 1419.717 *C 4.04 19.88
*P *2 O *C 1.8 0.08
*N *2:4 *C 3.4 13.16
*N *2:5 *C 4.04 19.88
*N *2:6 *C 1.8 13.16
*N *2:7 *C 3.4 19.88

*CAP
1 *21:Q 0.0
2 *22:D 0.0
3 *2 0.8560063
4 *2:4 0.4290964
5 *2:5 0.04846592
6 *2:6 0.9343789
7 *2:7 0.3991897

*RES
1 *2:4 *21:Q 0.9
2 *2:5 *22:D 0.9
3 *2 *2:6 7.3575
4 *2:6 *2:4 0.8550001
5 *2:4 *2:7 3.825
6 *2:7 *2:5 0.27

*END

*D_NET *31 0.7523153

*CONN
*I *22:QN O *L 0.0 *D SDFFARX1 *C 13.32 18.92
*I *23:SI I *L 1828.496 *C 15.24 17.64
*N *31:3 *C 13.32 18.92
*N *31:4 *C 13.32 17.64
*N *31:5 *C 13.32 17.64
*N *31:6 *C 13.32 17.64
*N *31:7 *C 15.24 17.64
*N *31:8 *C 15.24 17.64
*N *31:9 *C 15.24 17.64

*CAP
1 *22:QN 0.0
2 *23:SI 0.03837578
3 *31:3 0.09841661
4 *31:4 0.03107582
5 *31:5 0.09841661
6 *31:6 0.2082894
7 *31:7 0.1772136
8 *31:8 0.03107582
9 *31:9 0.06945161

*RES
1 *31:3 *22:QN 0.9
2 *31:4 *31:5 0.9
3 *31:6 *31:4 0.9
4 *31:7 *31:8 0.9
5 *31:8 *31:9 0.9
6 *31:9 *23:SI 0.9
7 *31:5 *31:3 0.8550001
8 *31:6 *31:7 0.9900002

*END

*D_NET *1 3.68746

*CONN
*I *22:Q O *L 0.0 *D SDFFARX1 *C 13.96 19.24
*I *23:D I *L 1419.717 *C 15.88 16.68
*P *1 O *C 31.68 28.84
*N *1:4 *C 30.92 28.84
*N *1:5 *C 30.92 28.84
*N *1:6 *C 30.92 28.84
*N *1:7 *C 15.88 28.84
*N *1:8 *C 15.88 28.84
*N *1:9 *C 15.56 21.48
*N *1:10 *C 15.56 21.48
*N *1:11 *C 13.96 21.48
*N *1:12 *C 13.96 21.48
*N *1:13 *C 13.96 19.24
*N *1:14 *C 15.88 16.68
*N *1:15 *C 15.88 21.48

*CAP
1 *22:Q 0.02524883
2 *23:D 0.0
3 *1 0.04682272
4 *1:4 0.04682272
5 *1:5 0.02354806
6 *1:6 0.6672409
7 *1:7 0.570072
8 *1:8 0.6436928
9 *1:9 0.03846947
10 *1:10 0.1459244
11 *1:11 0.1313692
12 *1:12 0.1459244
13 *1:13 0.1566181
14 *1:14 0.2185823
15 *1:15 0.8271238

*RES
1 *1:4 *1:5 0.9
2 *1:5 *1:6 0.9
3 *1:7 *1:8 0.9
4 *1:9 *1:10 0.9
5 *1:11 *1:12 0.9
6 *1:13 *22:Q 0.9
7 *1:14 *23:D 0.9
8 *1:12 *1:10 1.182857
9 *1:8 *1:6 9.82286
10 *1:13 *1:11 1.395
11 *1:9 *1:15 0.18
12 *1:14 *1:15 2.7225
13 *1:15 *1:7 4.1625
14 *1:4 *1 0.4500001

*END

*D_NET *32 1.671269

*CONN
*I *23:QN O *L 0.0 *D SDFFARX1 *C 25.16 17.64
*I *24:SI I *L 1828.496 *C 27.08 23.4
*N *32:3 *C 25.16 17.64
*N *32:4 *C 25.16 23.4
*N *32:5 *C 25.16 23.4
*N *32:6 *C 25.16 23.4
*N *32:7 *C 25.16 23.4
*N *32:8 *C 27.08 23.4
*N *32:9 *C 27.08 23.4
*N *32:10 *C 27.08 23.4
*N *32:11 *C 27.08 23.4

*CAP
1 *23:QN 0.0
2 *24:SI 0.0516134
3 *32:3 0.5647067
4 *32:4 0.03069619
5 *32:5 0.5647067
6 *32:6 0.06115933
7 *32:7 0.1237295
8 *32:8 0.09326641
9 *32:9 0.03102782
10 *32:10 0.06488866
11 *32:11 0.08547425

*RES
1 *32:3 *23:QN 0.9
2 *32:4 *32:5 0.9
3 *32:6 *32:4 0.9
4 *32:7 *32:6 0.9
5 *32:8 *32:9 0.9
6 *32:9 *32:10 0.9
7 *32:10 *32:11 0.9
8 *32:11 *24:SI 0.9
9 *32:3 *32:5 3.375
10 *32:7 *32:8 1.215

*END

*D_NET *15 1.472097

*CONN
*I *23:Q O *L 0.0 *D SDFFARX1 *C 25.8 17.32
*I *24:D I *L 1419.717 *C 26.44 22.44
*P *15 O *C 31.6 15.4
*N *15:4 *C 25.8 17.32
*N *15:5 *C 26.44 22.44
*N *15:6 *C 26.76 15.4
*N *15:7 *C 26.76 15.4
*N *15:8 *C 26.76 15.4
*N *15:9 *C 26.76 15.4
*N *15:10 *C 31.6 15.4
*N *15:11 *C 31.6 15.4
*N *15:12 *C 26.44 17.32
*N *15:13 *C 26.76 17.32

*CAP
1 *23:Q 0.02192317
2 *24:D 0.0
3 *15 0.03196868
4 *15:4 0.07164177
5 *15:5 0.2732151
6 *15:6 0.02260042
7 *15:7 0.07657877
8 *15:8 0.0535992
9 *15:9 0.2393282
10 *15:10 0.2083295
11 *15:11 0.03196868
12 *15:12 0.3436489
13 *15:13 0.09729406

*RES
1 *15:4 *23:Q 0.9
2 *15:5 *24:D 0.9
3 *15:6 *15:7 0.9
4 *15:8 *15:6 0.9
5 *15:9 *15:8 0.9
6 *15:10 *15:11 0.9
7 *15:11 *15 0.9
8 *15:4 *15:12 0.315
9 *15:12 *15:13 0.225
10 *15:12 *15:5 2.9025
11 *15:7 *15:13 1.1025
12 *15:9 *15:10 2.8575

*END

*D_NET *33 2.191805

*CONN
*I *24:QN O *L 0.0 *D SDFFARX1 *C 17.16 23.4
*I *17:SI I *L 1828.496 *C 26.44 24.68
*N *33:3 *C 17.16 23.4
*N *33:4 *C 17.16 27.56
*N *33:5 *C 17.16 27.56
*N *33:6 *C 26.44 27.56
*N *33:7 *C 26.44 27.56
*N *33:8 *C 26.44 24.68

*CAP
1 *24:QN 0.0
2 *17:SI 0.0246855
3 *33:3 0.2473857
4 *33:4 0.2473857
5 *33:5 0.6114769
6 *33:6 0.2123543
7 *33:7 0.6114769
8 *33:8 0.2370398

*RES
1 *33:3 *24:QN 0.9
2 *33:4 *33:5 0.9
3 *33:6 *33:7 0.9
4 *33:8 *17:SI 0.9
5 *33:5 *33:7 6.120001
6 *33:3 *33:4 2.475
7 *33:8 *33:6 1.755

*END

*D_NET *14 6.487776

*CONN
*I *24:Q O *L 0.0 *D SDFFARX1 *C 16.52 23.4
*I *17:D I *L 1419.717 *C 26.12 25.64
*P *14 O *C 31.6 1.96
*N *14:4 *C 24.84 27.24
*N *14:5 *C 24.84 27.24
*N *14:6 *C 24.84 1.64
*N *14:7 *C 24.84 1.64
*N *14:8 *C 24.84 1.64
*N *14:9 *C 24.84 1.64
*N *14:10 *C 31.6 1.96
*N *14:11 *C 31.6 1.96
*N *14:12 *C 16.52 23.4
*N *14:13 *C 16.52 27.24
*N *14:14 *C 16.52 27.24
*N *14:15 *C 26.12 27.24
*N *14:16 *C 26.12 27.24
*N *14:17 *C 26.12 25.64
*N *14:18 *C 24.84 1.96

*CAP
1 *24:Q 0.0
2 *17:D 0.0
3 *14 0.03266689
4 *14:4 1.512666
5 *14:5 0.881137
6 *14:6 0.0210004
7 *14:7 1.512666
8 *14:8 0.05359502
9 *14:9 0.06566682
10 *14:10 0.2797102
11 *14:11 0.03266689
12 *14:12 0.3339732
13 *14:13 0.3339732
14 *14:14 0.7559819
15 *14:15 0.1170668
16 *14:16 0.1251552
17 *14:17 0.1170668
18 *14:18 0.3127823

*RES
1 *14:4 *14:5 0.9
2 *14:6 *14:7 0.9
3 *14:8 *14:6 0.9
4 *14:9 *14:8 0.9
5 *14:10 *14:11 0.9
6 *14:11 *14 0.9
7 *14:12 *24:Q 0.9
8 *14:13 *14:14 0.9
9 *14:15 *14:16 0.9
10 *14:17 *17:D 0.9
11 *14:14 *14:5 5.425716
12 *14:5 *14:16 0.9000003
13 *14:12 *14:13 2.295
14 *14:7 *14:4 14.535
15 *14:17 *14:15 1.035
16 *14:9 *14:18 0.18
17 *14:18 *14:10 3.825

*END

*D_NET *12 1.660285

*CONN
*I *25:SI I *L 1828.496 *C 4.04 24.68
*P *12 I *C 15.88 30.72
*N *12:3 *C 15.88 30.12
*N *12:4 *C 15.88 30.12
*N *12:5 *C 4.04 30.12
*N *12:6 *C 4.04 30.12
*N *12:7 *C 4.04 24.68

*CAP
1 *25:SI 0.0
2 *12 0.0463176
3 *12:3 0.0463176
4 *12:4 0.509919
5 *12:5 0.2739059
6 *12:6 0.509919
7 *12:7 0.2739059

*RES
1 *12:3 *12:4 0.9
2 *12:5 *12:6 0.9
3 *12:7 *25:SI 0.9
4 *12:6 *12:4 7.765716
5 *12:7 *12:5 3.195
6 *12:3 *12 0.36

*END

*D_NET *34 2.546362

*CONN
*I *25:D I *L 1419.717 *C 4.68 25.64
*I *17:QN O *L 0.0 *D SDFFARX1 *C 16.84 24.68
*N *34:3 *C 4.68 25.64
*N *34:4 *C 4.68 23.4
*N *34:5 *C 4.68 23.4
*N *34:6 *C 15.56 23.4
*N *34:7 *C 15.56 23.4
*N *34:8 *C 15.56 24.68
*N *34:9 *C 15.56 24.68
*N *34:10 *C 15.56 24.68
*N *34:11 *C 16.84 24.68
*N *34:12 *C 16.84 24.68
*N *34:13 *C 16.84 24.68

*CAP
1 *25:D 0.0
2 *17:QN 0.0484144
3 *34:3 0.1516685
4 *34:4 0.1516685
5 *34:5 0.7322753
6 *34:6 0.1560879
7 *34:7 0.7322753
8 *34:8 0.03280557
9 *34:9 0.1560879
10 *34:10 0.161596
11 *34:11 0.1287904
12 *34:12 0.02313883
13 *34:13 0.07155323

*RES
1 *34:3 *25:D 0.9
2 *34:4 *34:5 0.9
3 *34:6 *34:7 0.9
4 *34:8 *34:9 0.9
5 *34:10 *34:8 0.9
6 *34:11 *34:12 0.9
7 *34:12 *34:13 0.9
8 *34:13 *17:QN 0.9
9 *34:5 *34:7 7.148573
10 *34:4 *34:3 1.395
11 *34:6 *34:9 0.8550001
12 *34:10 *34:11 0.63

*END

*D_NET *9 0.9135066

*CONN
*I *27:INP I *L 1863.017 *C 6.672 16.692
*P *9 I *C 0.16 15.4
*N *9:3 *C 0.16 15.4
*N *9:4 *C 0.16 15.4
*N *9:5 *C 5.0 15.4
*N *9:6 *C 5.0 15.4
*N *9:7 *C 5.0 15.4
*N *9:8 *C 5.0 15.4
*N *9:9 *C 5.0 16.68
*N *9:10 *C 5.0 16.68

*CAP
1 *27:INP 0.07316025
2 *9 0.0
3 *9:3 0.03220492
4 *9:4 0.2412658
5 *9:5 0.2090609
6 *9:6 0.03093341
7 *9:7 0.0645904
8 *9:8 0.1113938
9 *9:9 0.07773684
10 *9:10 0.07316025

*RES
1 *9:3 *9 0.9
2 *9:4 *9:3 0.9
3 *9:5 *9:6 0.9
4 *9:6 *9:7 0.9
5 *9:7 *9:8 0.9
6 *9:9 *9:10 0.9
7 *9:10 *27:INP 1.028572
8 *9:8 *9:9 0.8550001
9 *9:4 *9:5 2.8575

*END
